LTspice 24.1.5 for Windows
Circuit: C:\Users\supri\OneDrive\Documents\LTspice\Voltage Transfer Characteristic curve of CMOS.net
Start Time: Fri Mar 14 22:58:17 2025
Options: ALLOW_AMBIGUOUS_MODELS  ALLOW_AMBIGUOUS_MODELS
C:\Users\supri\OneDrive\Documents\LTspice\Voltage Transfer Characteristic curve of CMOS.net(3): This model has multiple definitions. Choosing one for you, unwisely. (Note: Option "ALLOW_AMBIGUOUS_MODELS" is enabled.)
M1 N001 N002 Vout N001 PMOS l=400u w=10u
                       ^^^^
C:\Users\supri\OneDrive\Documents\LTspice\Voltage Transfer Characteristic curve of CMOS.net(4): This model has multiple definitions. Choosing one for you, unwisely. (Note: Option "ALLOW_AMBIGUOUS_MODELS" is enabled.)
M2 Vout N002 0 0 NMOS l=100u w=10u
                 ^^^^
solver = Normal
Maximum thread count: 12
tnom = 27
temp = 27
method = trap
Instance "M2": Width narrower than recommended for a level 1 MOSFET.
Instance "M1": Width narrower than recommended for a level 1 MOSFET.
.step 
Total elapsed time: 0.161 seconds.

Files loaded:
C:\Users\supri\OneDrive\Documents\LTspice\Voltage Transfer Characteristic curve of CMOS.net
C:\Users\supri\AppData\Local\LTspice\lib\cmp\standard.mos

